
#======================================================================
# CRYSTAL DATA
#----------------------------------------------------------------------
data_VESTA_phase_1

_chemical_name_common                  'PDB File                              '
_cell_length_a                         17.396250
_cell_length_b                         17.396250
_cell_length_c                         17.39625
_cell_angle_alpha                      90.000000
_cell_angle_beta                       90.000000
_cell_angle_gamma                      90.000000
_cell_volume                           5264.618476
_space_group_name_H-M_alt              'P 1'
_space_group_IT_number                 1

loop_
_space_group_symop_operation_xyz
   'x, y, z'

loop_
   _atom_site_label
   _atom_site_occupancy
   _atom_site_fract_x
   _atom_site_fract_y
   _atom_site_fract_z
   _atom_site_adp_type
   _atom_site_U_iso_or_equiv
   _atom_site_type_symbol
   N1         1.0     0.733990     0.644495     0.211602    Uiso  ? N
   N2         1.0     0.717062     0.670729     0.332924    Uiso  ? N
   N3         1.0     0.489239     0.329356     0.702541    Uiso  ? N
   N4         1.0     0.483028     0.358463     0.581273    Uiso  ? N
   N5         1.0     0.614739     0.330815     0.285323    Uiso  ? N
   N6         1.0     0.533072     0.321523     0.191131    Uiso  ? N
   N7         1.0     0.409862     0.609546     0.273300    Uiso  ? N
   N8         1.0     0.331285     0.497603     0.681192    Uiso  ? N
   N9         1.0     0.724707     0.500501     0.732846    Uiso  ? N
   C1         1.0     0.692904     0.712334     0.215201    Uiso  ? C
   C2         1.0     0.681964     0.728514     0.291297    Uiso  ? C
   C3         1.0     0.748017     0.620107     0.283626    Uiso  ? C
   C4         1.0     0.755879     0.604734     0.140755    Uiso  ? C
   C5         1.0     0.714054     0.662329     0.417118    Uiso  ? C
   C6         1.0     0.663622     0.595170     0.442901    Uiso  ? C
   C7         1.0     0.530522     0.274157     0.663319    Uiso  ? C
   C8         1.0     0.526322     0.292221     0.586977    Uiso  ? C
   C9         1.0     0.461088     0.380196     0.651939    Uiso  ? C
   C10        1.0     0.482695     0.336018     0.786051    Uiso  ? C
   C11        1.0     0.463665     0.399878     0.510562    Uiso  ? C
   C12        1.0     0.410833     0.353006     0.458038    Uiso  ? C
   C13        1.0     0.655722     0.307633     0.221132    Uiso  ? C
   C14        1.0     0.604210     0.301623     0.162006    Uiso  ? C
   C15        1.0     0.540515     0.338888     0.265875    Uiso  ? C
   C16        1.0     0.647083     0.349631     0.360596    Uiso  ? C
   C17        1.0     0.459528     0.323029     0.149462    Uiso  ? C
   C18        1.0     0.411854     0.251670     0.166145    Uiso  ? C
   C19        1.0     0.275126     0.662772     0.210859    Uiso  ? C
   C20        1.0     0.544608     0.554154     0.213293    Uiso  ? C
   C21        1.0     0.322442     0.616628     0.577772    Uiso  ? C
   C22        1.0     0.253784     0.448797     0.808897    Uiso  ? C
   C23        1.0     0.743482     0.370026     0.818254    Uiso  ? C
   C24        1.0     0.609052     0.580498     0.660937    Uiso  ? C
   H1         1.0     0.777306     0.567509     0.299878    Uiso  ? H
   H2         1.0     0.673281     0.741797     0.163953    Uiso  ? H
   H3         1.0     0.651597     0.775149     0.319039    Uiso  ? H
   H4         1.0     0.786187     0.551616     0.155693    Uiso  ? H
   H5         1.0     0.704096     0.591071     0.107398    Uiso  ? H
   H6         1.0     0.793960     0.641557     0.106545    Uiso  ? H
   H7         1.0     0.772899     0.654921     0.438618    Uiso  ? H
   H8         1.0     0.691635     0.716734     0.439702    Uiso  ? H
   H9         1.0     0.650736     0.604361     0.503823    Uiso  ? H
   H10        1.0     0.608945     0.595654     0.411256    Uiso  ? H
   H11        1.0     0.717290     0.506554     0.484049    Uiso  ? H
   H12        1.0     0.424113     0.429474     0.665461    Uiso  ? H
   H13        1.0     0.560070     0.228187     0.693002    Uiso  ? H
   H14        1.0     0.550229     0.263512     0.537362    Uiso  ? H
   H15        1.0     0.428333     0.364259     0.800493    Uiso  ? H
   H16        1.0     0.484571     0.278206     0.810757    Uiso  ? H
   H17        1.0     0.530374     0.371226     0.807728    Uiso  ? H
   H18        1.0     0.434876     0.453253     0.527755    Uiso  ? H
   H19        1.0     0.517465     0.415638     0.481160    Uiso  ? H
   H20        1.0     0.398808     0.388891     0.406991    Uiso  ? H
   H21        1.0     0.440487     0.300529     0.438162    Uiso  ? H
   H22        1.0     0.315795     0.373975     0.514083    Uiso  ? H
   H23        1.0     0.494608     0.360427     0.302273    Uiso  ? H
   H24        1.0     0.716993     0.297516     0.223079    Uiso  ? H
   H25        1.0     0.612224     0.285803     0.102397    Uiso  ? H
   H26        1.0     0.606168     0.332604     0.405329    Uiso  ? H
   H27        1.0     0.700479     0.317244     0.368453    Uiso  ? H
   H28        1.0     0.658747     0.411539     0.365514    Uiso  ? H
   H29        1.0     0.429007     0.375620     0.166955    Uiso  ? H
   H30        1.0     0.472450     0.327694     0.087981    Uiso  ? H
   H31        1.0     0.357067     0.257946     0.134820    Uiso  ? H
   H32        1.0     0.441471     0.199546     0.144916    Uiso  ? H
   H33        1.0     0.361233     0.210589     0.259223    Uiso  ? H
   O1         1.0     0.701058     0.522968     0.432147    Uiso  ? O
   O2         1.0     0.343259     0.328004     0.495511    Uiso  ? O
   O3         1.0     0.400704     0.248216     0.247377    Uiso  ? O
   O4         1.0     0.382776     0.748281     0.276124    Uiso  ? O
   O5         1.0     0.411705     0.689536     0.148185    Uiso  ? O
   O6         1.0     0.410127     0.504390     0.166844    Uiso  ? O
   O7         1.0     0.451727     0.478056     0.300794    Uiso  ? O
   O8         1.0     0.293054     0.472394     0.548272    Uiso  ? O
   O9         1.0     0.198992     0.543238     0.630178    Uiso  ? O
   O10        1.0     0.287253     0.595703     0.784056    Uiso  ? O
   O11        1.0     0.394775     0.502199     0.806296    Uiso  ? O
   O12        1.0     0.741760     0.511005     0.873597    Uiso  ? O
   O13        1.0     0.618708     0.454719     0.826777    Uiso  ? O
   O14        1.0     0.622871     0.429611     0.650825    Uiso  ? O
   O15        1.0     0.724159     0.510300     0.591585    Uiso  ? O
   F1         1.0     0.242828     0.723513     0.174091    Uiso  ? F
   F2         1.0     0.239008     0.653294     0.279142    Uiso  ? F
   F3         1.0     0.263902     0.599171     0.167768    Uiso  ? F
   F4         1.0     0.553896     0.605066     0.155517    Uiso  ? F
   F5         1.0     0.582194     0.582125     0.276372    Uiso  ? F
   F6         1.0     0.582644     0.488055     0.192139    Uiso  ? F
   F7         1.0     0.287875     0.638966     0.511813    Uiso  ? F
   F8         1.0     0.398766     0.606228     0.563499    Uiso  ? F
   F9         1.0     0.315145     0.673151     0.630282    Uiso  ? F
   F10        1.0     0.186479     0.447888     0.770609    Uiso  ? F
   F11        1.0     0.285176     0.376862     0.804313    Uiso  ? F
   F12        1.0     0.239622     0.463764     0.884059    Uiso  ? F
   F13        1.0     0.726362     0.337128     0.887468    Uiso  ? F
   F14        1.0     0.820647     0.371578     0.810675    Uiso  ? F
   F15        1.0     0.713968     0.324031     0.762332    Uiso  ? F
   F16        1.0     0.568853     0.583846     0.726555    Uiso  ? F
   F17        1.0     0.649629     0.646918     0.652705    Uiso  ? F
   F18        1.0     0.558863     0.575658     0.600812    Uiso  ? F
   S1         1.0     0.380584     0.683334     0.224771    Uiso  ? S
   S2         1.0     0.441502     0.532879     0.238395    Uiso  ? S
   S3         1.0     0.277414     0.524332     0.611972    Uiso  ? S
   S4         1.0     0.322917     0.522498     0.769773    Uiso  ? S
   S5         1.0     0.699851     0.469075     0.815820    Uiso  ? S
   S6         1.0     0.674710     0.494180     0.657388    Uiso  ? S
